*Heading
** Job name: Job-5 Model name: test5
** Generated by: Abaqus/CAE 6.9-EF2
*Preprint, echo=NO, model=NO, history=NO, contact=NO
**
** PARTS
**
*Part, name=SpecH3
*Node
      1,  0.164429173, 0.0299213007
      2,           0.,  0.100000001
      3,           0.,           0.
      4,        0.125,           0.
      5,  0.154921293, 0.0299213007
      6,         0.25, 0.0299213007
      7,         0.25,          0.5
      8,           0.,          0.5
      9,  0.162656382, 0.0398040377
     10,  0.160021439, 0.0494843721
     11,  0.155709699, 0.0585318841
     12,  0.149793878, 0.0666313544
     13,  0.142860249, 0.0738849863
     14,  0.135268003, 0.0804474577
     15,  0.127107814, 0.0862907171
     16,  0.118439175, 0.0913503543
     17,  0.109333545, 0.0955738053
     18, 0.0998623371, 0.0988999531
     19, 0.0901067257,  0.101268485
     20, 0.0801765248,  0.102739282
** ... 1633 like lines cut
*Element, type=CAX8R
  1,  154,  151,    5,   79,  566,  567,  568,  569
  2,   78,    5,  151,  100,  570,  567,  571,  572
  3,   10,   11,  101,  118,  573,  574,  575,  576
  4,  100,  102,   77,   78,  577,  578,  579,  572
  5,  110,  155,  181,  101,  580,  581,  582,  583
  6,  152,  102,  182,  211,  584,  585,  586,  587
  7,  215,  155,  212,  263,  588,  589,  590,  591
  8,  175,  140,  142,  207,  592,  593,  594,  595
  9,  200,  133,  134,  201,  596,  597,  598,  599
 10,   15,   16,  105,  104,  600,  601,  602,  603
 11,   54,   55,  172,  160,  604,  605,  606,  607
 12,   40,  122,  161,   39,  608,  609,  610,  611
 13,   18,   19,  141,  109,  612,  613,  614,  615
 14,   41,  121,  122,   40,  616,  617,  608,  618
 15,  120,   44,   45,  119,  619,  620,  621,  622
 16,   13,   14,  108,  103,  623,  624,  625,  626
 17,    2,   28,  131,   27,  627,  628,  629,  630
 18,  162,  129,  128,  197,  631,  632,  633,  634
 19,   26,   27,  163,  111,  635,  636,  637,  638
 20,  216,  114,  186,  246,  639,  640,  641,  642
** ... 504 like lines cut
*Nset, nset=_PickedSet2, internal, generate
    1,  1653,     1
*Elset, elset=_PickedSet2, internal, generate
   1,  524,    1
** Section: Section-1
*Solid Section, elset=_PickedSet2, material=Material-1
1.,
*End Part
**  
**
** ASSEMBLY
**
*Assembly, name=Assembly
**  
*Instance, name=SpecH3-1, part=SpecH3
*End Instance
**  
*Nset, nset=_PickedSet5, internal, instance=SpecH3-1
 8,
*Nset, nset=_PickedSet7, internal, instance=SpecH3-1
 8,
*Nset, nset=_PickedSet8, internal, instance=SpecH3-1
 8,
*Nset, nset=_PickedSet10, internal, instance=SpecH3-1
   3,   4,  47,  48,  49,  50,  51,  52,  53,  54,  55,  56,  57,  58,  59,  60
  61,  62,  63,  64,  65,  66,  67,  68,  69,  70, 604, 646, 654, 665, 671, 678
 688, 715, 725, 732, 741, 746, 750, 771, 777, 802, 820, 832, 837, 861, 873, 878
 881, 888, 943
*Elset, elset=_PickedSet10, internal, instance=SpecH3-1
  11,  22,  24,  27,  29,  31,  34,  43,  46,  48,  51,  53,  54,  61,  63,  73
  81,  85,  88,  99, 106, 108, 110, 113, 138
*Nset, nset=_PickedSet11, internal, instance=SpecH3-1
    2,    3,    8,   28,   29,   30,   31,   32,   33,   34,   35,   36,   37,   38,   39,   40
   41,   42,   43,   44,   45,   46,   93,   94,   95,   96,   97,   98,   99,  611,  618,  620
  627,  668,  670,  686,  691,  695,  697,  701,  704,  707,  712,  714,  813,  818,  834,  835
  852, 1453, 1464, 1530, 1536, 1538, 1589, 1590, 1615
*Elset, elset=_PickedSet11, internal, instance=SpecH3-1
  12,  14,  15,  17,  27,  28,  33,  35,  36,  37,  38,  39,  40,  41,  42,  77
  80,  86,  87,  94, 425, 428, 450, 453, 454, 477, 478, 494
*Nset, nset=ReactionNode, instance=SpecH3-1
 8,
*Nset, nset=InnerNode, instance=SpecH3-1
 3,
*Elset, elset=__PickedSurf4_S4, internal, instance=SpecH3-1
 443, 456, 472
*Elset, elset=__PickedSurf4_S3, internal, instance=SpecH3-1
 450,
*Elset, elset=__PickedSurf4_S2, internal, instance=SpecH3-1
 487,
*Surface, type=ELEMENT, name=_PickedSurf4, internal
__PickedSurf4_S4, S4
__PickedSurf4_S3, S3
__PickedSurf4_S2, S2
** Constraint: Constraint-1
*Coupling, constraint name=Constraint-1, ref node=_PickedSet5, surface=_PickedSurf4
*Kinematic
2, 2
6, 6
*End Assembly
*Amplitude, name=Amp-3, definition=EQUALLY SPACED, fixed interval=0.1
          0.,   0.00984252,  -0.00511811,   0.00984252,  -0.00511811,   0.00984252,  -0.00511811,   0.00984252
** 
** MATERIALS
** 
*Material, name=Material-1
*Elastic
29000., 0.3
*Plastic, hardening=COMBINED, datatype=PARAMETERS, number backstresses=2
50.,   1.,   0.,1570.,  40.
*Cyclic Hardening, parameters
50.,17., 5.
** 
** BOUNDARY CONDITIONS
** 
** Name: HoldBot Type: Displacement/Rotation
*Boundary
_PickedSet10, 2, 2
** Name: HoldTop Type: Displacement/Rotation
*Boundary
_PickedSet8, 6, 6
** Name: axisym Type: Displacement/Rotation
*Boundary
_PickedSet11, 1, 1
** ----------------------------------------------------------------
** 
** STEP: Pull
** 
*Step, name=Pull, nlgeom=YES, inc=10000
*Static
0.005, 1., 1e-05, 0.005
** 
** BOUNDARY CONDITIONS
** 
** Name: Pull Type: Displacement/Rotation
*Boundary, amplitude=Amp-3
_PickedSet7, 2, 2, 1.0
** 
** OUTPUT REQUESTS
** 
*Restart, write, frequency=0
** 
** FIELD OUTPUT: F-Output-1
** 
*Output, field
*Node Output
CF, RF, U
*Element Output, directions=YES
LE, PE, PEEQ, PEMAG, S
** 
** HISTORY OUTPUT: ReactionData
** 
*Output, history
*Node Output, nset=ReactionNode
RF2, U2
*End Step
