*Heading
** Job name: Job-1 Model name: test1
** Generated by: Abaqus/CAE 6.9-EF2
*Preprint, echo=NO, model=NO, history=NO, contact=NO
**
** PARTS
**
*Part, name=SpecH3
*Node
      1,  0.191358253, 0.0598425008
      2,           0.,  0.100000001
      3,           0.,           0.
      4,        0.125,           0.
      5,  0.184842497, 0.0598425008
      6,         0.25, 0.0598425008
      7,         0.25,          0.5
      8,           0.,          0.5
      9,   0.18911235, 0.0692910329
     10,  0.186095417, 0.0785156414
     11,  0.181508571, 0.0870539993
     12,  0.175171331, 0.0943931565
     13,  0.167724654,  0.100613363
     14,  0.159642547,  0.105986975
     15,  0.151140794,  0.110674419
     16,  0.142263055,  0.114604972
     17,  0.133060262,   0.11769557
     18,  0.123604678,    0.1198918
     19,  0.113980778,  0.121161774
     20,  0.104277797,  0.121463008
** ... 1057 like lines cut
*Element, type=CAX8R
  1,   5,   1,   9,  79, 370, 371, 372, 373
  2,  79,   9,  10,  80, 372, 374, 375, 376
  3,  59,   5,  79, 101, 377, 373, 378, 379
  4,  83,  13,  14, 100, 380, 381, 382, 383
  5,  11,  81,  80,  10, 384, 385, 375, 386
  6, 120,  82,  83, 158, 387, 388, 389, 390
  7,  13,  83,  82,  12, 380, 388, 391, 392
  8,  87,  19,  20,  98, 393, 394, 395, 396
  9, 121,  99,  94, 122, 397, 398, 399, 400
 10, 138,  85,  87, 132, 401, 402, 403, 404
 11,  55,  86,  88,  54, 405, 406, 407, 408
 12, 113,  47,  48, 114, 409, 410, 411, 412
 13,  38, 145, 123,  37, 413, 414, 415, 416
 14,  90,  43,  44,  92, 417, 418, 419, 420
 15,  91,  41,  42, 103, 421, 422, 423, 424
 16, 110,  45,  46,  89, 425, 426, 427, 428
 17, 107,  31,  32, 106, 429, 430, 431, 432
 18, 161, 122, 138, 180, 433, 434, 435, 436
 19,  85,  18,  19,  87, 437, 438, 393, 402
 20,  30,   2,  31, 107, 439, 440, 429, 441
** ... 320 like lines cut
*Nset, nset=_PickedSet2, internal, generate
    1,  1077,     1
*Elset, elset=_PickedSet2, internal, generate
   1,  340,    1
** Section: Section-1
*Solid Section, elset=_PickedSet2, material=Material-1
1.,
*End Part
**  
**
** ASSEMBLY
**
*Assembly, name=Assembly
**  
*Instance, name=SpecH3-1, part=SpecH3
*End Instance
**  
*Nset, nset=_PickedSet5, internal, instance=SpecH3-1
 8,
*Nset, nset=_PickedSet7, internal, instance=SpecH3-1
 8,
*Nset, nset=_PickedSet8, internal, instance=SpecH3-1
 8,
*Nset, nset=_PickedSet10, internal, instance=SpecH3-1
   3,   4,  40,  41,  42,  43,  44,  45,  46,  47,  48,  49,  50,  51, 410, 418
 422, 426, 469, 473, 478, 501, 517, 519, 556, 560, 616
*Elset, elset=_PickedSet10, internal, instance=SpecH3-1
 12, 14, 15, 16, 28, 29, 31, 39, 43, 44, 59, 61, 81
*Nset, nset=_PickedSet11, internal, instance=SpecH3-1
    2,    3,    8,   31,   32,   33,   34,   35,   36,   37,   38,   39,   72,   73,   74,   75
   76,   77,   78,  416,  430,  440,  468,  484,  485,  559,  584,  588,  599,  847,  864,  897
  932,  945, 1010, 1012, 1027
*Elset, elset=_PickedSet11, internal, instance=SpecH3-1
  13,  17,  20,  28,  33,  34,  60,  69,  71,  75, 225, 230, 243, 252, 258, 288
 290, 299
*Nset, nset=ReactionNode, instance=SpecH3-1
 8,
*Nset, nset=InnerNode, instance=SpecH3-1
 3,
*Elset, elset=__PickedSurf4_S2, internal, instance=SpecH3-1
 245,
*Elset, elset=__PickedSurf4_S3, internal, instance=SpecH3-1
 252,
*Elset, elset=__PickedSurf4_S4, internal, instance=SpecH3-1
 254, 259, 289
*Surface, type=ELEMENT, name=_PickedSurf4, internal
__PickedSurf4_S2, S2
__PickedSurf4_S3, S3
__PickedSurf4_S4, S4
** Constraint: Constraint-1
*Coupling, constraint name=Constraint-1, ref node=_PickedSet5, surface=_PickedSurf4
*Kinematic
2, 2
6, 6
*End Assembly
*Amplitude, name=Amp-3, definition=EQUALLY SPACED, fixed interval=0.1
          0.,   0.00984252,  -0.00511811,   0.00984252,  -0.00511811,   0.00984252,  -0.00511811,   0.00984252
** 
** MATERIALS
** 
*Material, name=Material-1
*Elastic
29000., 0.3
*Plastic, hardening=COMBINED, datatype=PARAMETERS, number backstresses=2
50.,   1.,   0.,1570.,  40.
*Cyclic Hardening, parameters
50.,17., 5.
** 
** BOUNDARY CONDITIONS
** 
** Name: HoldBot Type: Displacement/Rotation
*Boundary
_PickedSet10, 2, 2
** Name: HoldTop Type: Displacement/Rotation
*Boundary
_PickedSet8, 6, 6
** Name: axisym Type: Displacement/Rotation
*Boundary
_PickedSet11, 1, 1
** ----------------------------------------------------------------
** 
** STEP: Pull
** 
*Step, name=Pull, nlgeom=YES, inc=10000
*Static
0.005, 1., 1e-05, 0.005
** 
** BOUNDARY CONDITIONS
** 
** Name: Pull Type: Displacement/Rotation
*Boundary, amplitude=Amp-3
_PickedSet7, 2, 2, 1.0
** 
** OUTPUT REQUESTS
** 
*Restart, write, frequency=0
** 
** FIELD OUTPUT: F-Output-1
** 
*Output, field
*Node Output
CF, RF, U
*Element Output, directions=YES
LE, PE, PEEQ, PEMAG, S
** 
** HISTORY OUTPUT: ReactionData
** 
*Output, history
*Node Output, nset=ReactionNode
RF2, U2
*End Step
