*Heading
** Job name: Job-14 Model name: test14
** Generated by: Abaqus/CAE 6.9-EF2
*Preprint, echo=NO, model=NO, history=NO, contact=NO
**
** PARTS
**
*Part, name=SpecH3
*Node
      1,           0.,  0.150000006
      2,         0.25,  0.150000006
      3,         0.25,          0.5
      4,           0.,          0.5
      5,           0.,           0.
      6,        0.125,           0.
      7,         0.25,  0.125196844
      8, 0.00999999978,  0.150000006
      9, 0.0199999996,  0.150000006
     10, 0.0299999993,  0.150000006
     11, 0.0399999991,  0.150000006
     12, 0.0500000007,  0.150000006
     13, 0.0599999987,  0.150000006
     14, 0.0700000003,  0.150000006
     15, 0.0799999982,  0.150000006
     16, 0.0900000036,  0.150000006
     17,  0.100000001,  0.150000006
     18,  0.109999999,  0.150000006
     19,  0.119999997,  0.150000006
     20,  0.129999995,  0.150000006
** ... 1278 like lines cut
*Element, type=CAX8R
 1,  95,  47,   1,   8, 446, 447, 448, 449
 2,  45, 117, 118,  44, 450, 451, 452, 453
 3,  96,  29,  30, 162, 454, 455, 456, 457
 4,  33, 111, 112,  32, 458, 459, 460, 461
 5, 120,  27,  28, 161, 462, 463, 464, 465
 6, 165,  26,  27, 120, 466, 467, 462, 468
 7,  25, 160,  97,  24, 469, 470, 471, 472
 8,  98,  23,  24,  97, 473, 474, 471, 475
 9,  23,  98,  99,  22, 473, 476, 477, 478
10, 100,  21,  22,  99, 479, 480, 477, 481
11, 154, 132, 169, 142, 482, 483, 484, 485
12, 101,  20,  21, 100, 486, 487, 479, 488
13, 102,  19,  20, 101, 489, 490, 486, 491
14,  18, 103, 104,  17, 492, 493, 494, 495
15,  17, 104, 105,  16, 494, 496, 497, 498
16,  16, 105, 106,  15, 497, 499, 500, 501
17,  15, 106, 159,  14, 500, 502, 503, 504
18,  13, 107, 158,  12, 505, 506, 507, 508
19,  12, 158, 108,  11, 507, 509, 510, 511
20,  11, 108, 135,  10, 510, 512, 513, 514
** ... 389 like lines cut
*Nset, nset=_PickedSet2, internal, generate
    1,  1298,     1
*Elset, elset=_PickedSet2, internal, generate
   1,  409,    1
** Section: Section-1
*Solid Section, elset=_PickedSet2, material=Material-1
1.,
*End Part
**  
**
** ASSEMBLY
**
*Assembly, name=Assembly
**  
*Instance, name=SpecH3-1, part=SpecH3
*End Instance
**  
*Nset, nset=_PickedSet10, internal, instance=SpecH3-1
   5,   6,  63,  64,  65,  66,  67,  68,  69,  70,  71,  72,  73,  74, 679, 743
 750, 792, 804, 809, 814, 818, 858, 908, 911, 936, 974
*Elset, elset=_PickedSet10, internal, instance=SpecH3-1
 104, 127, 129, 141, 146, 147, 149, 150, 162, 190, 191, 203, 222
*Nset, nset=_PickedSet14, internal, instance=SpecH3-1
   1,   4,   5,  42,  43,  44,  45,  46,  47,  48,  49,  50,  51,  52,  53,  54
  55,  56,  57,  58,  59,  60,  61,  62, 447, 453, 533, 547, 601, 603, 620, 740
 746, 749, 754, 757, 774, 781, 787, 790, 798, 800, 889, 891, 894, 904, 925
*Elset, elset=_PickedSet14, internal, instance=SpecH3-1
   1,   2,  25,  30,  51,  53,  61, 126, 127, 128, 130, 131, 135, 138, 139, 140
 143, 144, 182, 183, 184, 189, 196
*Nset, nset=_PickedSet15, internal, instance=SpecH3-1
 4,
*Nset, nset=_PickedSet17, internal, instance=SpecH3-1
 4,
*Nset, nset=_PickedSet18, internal, instance=SpecH3-1
 4,
*Nset, nset=ReactionNode, instance=SpecH3-1
 4,
*Nset, nset=InnerNode, instance=SpecH3-1
 5,
*Elset, elset=__PickedSurf16_S2, internal, instance=SpecH3-1
 21,
*Elset, elset=__PickedSurf16_S3, internal, instance=SpecH3-1
 25,
*Elset, elset=__PickedSurf16_S4, internal, instance=SpecH3-1
 26, 27, 32
*Surface, type=ELEMENT, name=_PickedSurf16, internal
__PickedSurf16_S2, S2
__PickedSurf16_S3, S3
__PickedSurf16_S4, S4
** Constraint: Constraint-1
*Coupling, constraint name=Constraint-1, ref node=_PickedSet17, surface=_PickedSurf16
*Kinematic
2, 2
6, 6
*End Assembly
*Amplitude, name=Amp-3, definition=EQUALLY SPACED, fixed interval=0.1
          0.,   0.02992126,           0.,   0.02992126,           0.,   0.02992126,           0.,   0.01496063
** 
** MATERIALS
** 
*Material, name=Material-1
*Elastic
29000., 0.3
*Plastic, hardening=COMBINED, datatype=PARAMETERS, number backstresses=2
50.,   1.,   0.,1570.,  40.
*Cyclic Hardening, parameters
50.,17., 5.
** 
** BOUNDARY CONDITIONS
** 
** Name: HoldBot Type: Displacement/Rotation
*Boundary
_PickedSet10, 2, 2
** Name: HoldTop Type: Displacement/Rotation
*Boundary
_PickedSet18, 6, 6
** Name: axisym Type: Displacement/Rotation
*Boundary
_PickedSet14, 1, 1
** ----------------------------------------------------------------
** 
** STEP: Pull
** 
*Step, name=Pull, nlgeom=YES, inc=10000
*Static
0.005, 1., 1e-05, 0.005
** 
** BOUNDARY CONDITIONS
** 
** Name: Pull Type: Displacement/Rotation
*Boundary, amplitude=Amp-3
_PickedSet15, 2, 2, 1.0
** 
** OUTPUT REQUESTS
** 
*Restart, write, frequency=0
** 
** FIELD OUTPUT: F-Output-1
** 
*Output, field
*Node Output
CF, RF, U
*Element Output, directions=YES
LE, PE, PEEQ, PEMAG, S
** 
** HISTORY OUTPUT: ReactionData
** 
*Output, history
*Node Output, nset=ReactionNode
RF2, U2
*End Step
